@<TRIPOS>MOLECULE
DCA
    5     4     1     0     0
SMALL
resp


@<TRIPOS>ATOM
      1 N1          0.0000    0.0000    0.7420 ne        1 DCA     -0.810250
      2 C1          0.0000    1.1280    0.0710 c1        1 DCA      0.682641
      3 N2          0.0000    2.1630   -0.4320 n1        1 DCA     -0.777516
      4 C2          0.0000   -1.1280    0.0710 cg        1 DCA      0.682641
      5 N3          0.0000   -2.1630   -0.4320 n1        1 DCA     -0.777516
@<TRIPOS>BOND
     1    1    2 2   
     2    1    4 1   
     3    2    3 2   
     4    4    5 3   
@<TRIPOS>SUBSTRUCTURE
     1 DCA         1 TEMP              0 ****  ****    0 ROOT
