@<TRIPOS>MOLECULE
TMA
   17    16     1     0     0
SMALL
resp


@<TRIPOS>ATOM
      1 N1           0.0000     0.0000     0.0000 n4         1 TMA       0.267074
      2 C1           0.8640     0.8640     0.8640 c3         1 TMA      -0.402306
      3 H1           1.4830     1.4830     0.2330 hx         1 TMA       0.195179
      4 H2           0.2330     1.4830     1.4830 hx         1 TMA       0.195179
      5 H3           1.4830     0.2330     1.4830 hx         1 TMA       0.195179
      6 C2          -0.8640    -0.8640     0.8640 c3         1 TMA      -0.402306
      7 H4          -1.4830    -1.4830     0.2330 hx         1 TMA       0.195179
      8 H5          -0.2330    -1.4830     1.4830 hx         1 TMA       0.195179
      9 H6          -1.4830    -0.2330     1.4830 hx         1 TMA       0.195179
     10 C3          -0.8640     0.8640    -0.8640 c3         1 TMA      -0.402306
     11 H7          -1.4830     0.2330    -1.4830 hx         1 TMA       0.195179
     12 H8          -1.4830     1.4830    -0.2330 hx         1 TMA       0.195179
     13 H9          -0.2330     1.4830    -1.4830 hx         1 TMA       0.195179
     14 C4           0.8640    -0.8640    -0.8640 c3         1 TMA      -0.402306
     15 H10          0.2330    -1.4830    -1.4830 hx         1 TMA       0.195179
     16 H11          1.4830    -0.2330    -1.4830 hx         1 TMA       0.195179
     17 H12          1.4830    -1.4830    -0.2330 hx         1 TMA       0.195179
@<TRIPOS>BOND
     1     1     2 1   
     2     1     6 1   
     3     1    10 1   
     4     1    14 1   
     5     2     3 1   
     6     2     4 1   
     7     2     5 1   
     8     6     7 1   
     9     6     8 1   
    10     6     9 1   
    11    10    11 1   
    12    10    12 1   
    13    10    13 1   
    14    14    15 1   
    15    14    16 1   
    16    14    17 1   
@<TRIPOS>SUBSTRUCTURE
     1 TMA         1 TEMP              0 ****  ****    0 ROOT

